Circuit: * D:\LTspice\VLSI\FinalProjectDraft4.asc

Ignoring BSIM parameter XL
Ignoring BSIM parameter XW
Ignoring BSIM parameter XL
Ignoring BSIM parameter XW
vra3: Removing PWL point (3.425e-09,0)
vra3: Removing PWL point (1.0925e-08,0)
vra4: Removing PWL point (9.25e-10,0)
vra4: Removing PWL point (8.425e-09,0)
vca1: Removing PWL point (1.9e-09,0)
vca1: Removing PWL point (6.9e-09,0)
vca1: Removing PWL point (1.19e-08,0)
vca2: Removing PWL point (1.9e-09,0)
v4: Removing PWL point (1.9e-09,1.8)
v4: Removing PWL point (6.9e-09,1.8)
v4: Removing PWL point (1.19e-08,1.8)
v5: Removing PWL point (1.9e-09,1.8)
WARNING: Node N010 is floating.

WARNING: Less than two connections to node !clk.  This node is used by v§clock1.
Warning: Pd = 0 is less than W.
Warning: Ps = 0 is less than W.
Warning: Pd = 0 is less than W.
Warning: Ps = 0 is less than W.
Warning: Pd = 0 is less than W.
Warning: Ps = 0 is less than W.
Warning: Pd = 0 is less than W.
Warning: Ps = 0 is less than W.
Direct Newton iteration failed to find .op point.  (Use ".option noopiter" to skip.)
Starting Gmin stepping
Gmin = 10
Gmin = 1.07374
Gmin = 0.115292
Gmin = 0.0123794
Gmin = 0.00132923
Gmin = 0.000142725
Gmin = 1.5325e-05
Gmin = 1.6455e-06
Gmin = 1.76685e-07
Gmin = 1.89714e-08
Gmin = 2.03704e-09
Gmin = 2.18725e-10
Gmin = 2.34854e-11
Gmin = 2.52173e-12
Gmin = 2.70769e-13
Gmin = 0
Gmin stepping succeeded in finding the operating point.


Date: Wed Nov 26 03:59:58 2025
Total elapsed time: 0.634 seconds.

tnom = 27
temp = 27
method = modified trap
totiter = 3737
traniter = 3285
tranpoints = 1301
accept = 1243
rejected = 58
matrix size = 138
fillins = 152
solver = Normal
Avg thread counts: 3.2/3.5/3.1/1.8
Matrix Compiler1: 23.25 KB object code size  7.5/4.0/[1.3]
Matrix Compiler2: 19.36 KB object code size  3.0/3.3/[1.2]

